Circuit: * C:\Users\Robert\Documents\GitHub\UrsaMajorStargate323\Simulation\stargate_323_ltspice_comparator.asc

Direct Newton iteration failed to find .op point.  (Use ".option noopiter" to skip.)
Starting Gmin stepping
Increasing initial diagonal Gmin to 100
Increasing initial diagonal Gmin to 1000
Gmin = 1000
Gmin = 107.374
Gmin = 11.5292
Gmin = 1.23794
Gmin = 0.132923
Gmin = 0.0142725
Gmin = 0.0015325
Gmin = 0.00016455
Gmin = 1.76685e-005
Gmin = 1.89714e-006
Gmin = 2.03704e-007
Gmin = 2.18725e-008
Gmin = 2.34854e-009
Gmin = 2.52173e-010
Gmin = 2.70769e-011
Gmin = 2.90735e-012
Gmin = 3.12175e-013
Gmin = 0
Gmin stepping succeeded in finding the operating point.


Date: Mon Nov 01 23:16:03 2021
Total elapsed time: 1.706 seconds.

tnom = 27
temp = 27
method = trap
totiter = 759
traniter = 0
tranpoints = 0
accept = 0
rejected = 0
matrix size = 285
fillins = 425
solver = Normal
Matrix Compiler1:    2241 opcodes
Matrix Compiler2: 40.49 KB object code size  7.6/9.6/[3.3]

